*HEADING
cubit(TEPS_Docker/notebooks/user_manual/meshes/cyl4_20Ktets.inp): 11/07/2019: 14
version: 14.1
**
********************************** P A R T S **********************************
*PART, NAME=Part-Default
**
********************************** N O D E S **********************************
*NODE, NSET=ALLNODES
       1,   -4.483695e-02,    3.840267e-02,    4.673154e-01
       2,   -8.568246e-02,    6.041077e-02,    4.794166e-01
       3,   -4.930789e-02,    9.435337e-02,    4.696506e-01
       4,   -6.379353e-02,    6.111727e-02,    4.358300e-01
       5,   -8.007811e-02,    3.772327e-02,    5.235094e-01
       6,   -4.658154e-02,    8.570274e-03,    5.183980e-01
       7,   -5.135328e-02,    6.678440e-02,    5.031843e-01
       8,   -3.852125e-02,    1.123152e-02,    4.286353e-01
       9,   -5.692805e-02,   -1.034338e-02,    4.665381e-01
      10,   -7.706217e-02,    7.922076e-03,    4.202569e-01
      11,   -6.021265e-02,    1.373385e-01,    4.464549e-01
      12,   -1.034098e-01,    1.049926e-01,    4.779814e-01
      13,   -5.620953e-02,    1.269044e-01,    5.068838e-01
      14,   -3.354277e-02,    8.570763e-02,    4.237718e-01
      15,   -1.779927e-02,    3.184452e-02,    3.945633e-01
      16,   -2.684525e-02,    8.978800e-02,    3.760873e-01
      17,    1.020070e-02,    6.784949e-02,    4.219753e-01
      18,    2.782720e-02,    2.714210e-02,    3.964863e-01
      19,    5.165078e-02,    3.928408e-02,    4.219230e-01
      20,    1.026037e-02,    3.196614e-02,    4.398585e-01
** ... 3912 like lines cut
**
********************************** E L E M E N T S ****************************
*ELEMENT, TYPE=C3D4, ELSET=ER
       1,       1,       2,       3,       4
       2,       1,       5,       6,       7
       3,       1,       8,       9,      10
       4,       3,      11,      12,      13
       5,      14,      15,      16,      17
       6,      17,      18,      19,      20
       7,      17,      21,      22,      18
       8,      17,      14,      20,      23
       9,      17,      14,      24,      25
      10,      17,      14,      25,      16
      11,      26,      27,      28,      29
      12,      26,      27,      30,      28
      13,      26,      31,      32,      33
      14,      26,      34,      35,      36
      15,      26,      34,      30,      35
      16,      26,      36,      31,      34
      17,      17,      16,      21,      15
      18,      14,      11,      24,      37
      19,      14,      24,      11,       3
      20,      38,      14,       3,       4
** ... 778 like lines cut
*ELEMENT, TYPE=C3D4, ELSET=cytosol
     799,     195,     196,     197,     198
     800,     195,     198,     199,     196
     801,     200,     201,     202,     203
     802,     200,     204,     205,     201
     803,     200,     206,     207,     208
     804,     200,     205,     204,     209
     805,     200,     209,     210,     205
     806,     211,     212,     213,     214
     807,     208,     215,     209,     200
     808,     200,     207,     205,     210
     809,     216,     217,     218,     219
     810,     216,     219,     220,     221
     811,     216,     222,     223,     224
     812,     216,     218,     217,     222
     813,     216,     220,     222,     224
     814,     225,     226,     227,     228
     815,     229,     230,     231,     232
     816,     233,     234,     235,     236
     817,     237,     238,     239,     240
     818,     241,     234,     235,     242
** ... 19922 like lines cut
**
********************************** P R O P E R T I E S ************************
*SOLID SECTION, ELSET=ER, MATERIAL=Default-Steel
*SOLID SECTION, ELSET=cytosol, MATERIAL=Default-Steel
**
*END PART
**
**
**
********************************** E N D   P A R T S **********************************
**
**
********************************** A S S E M B L Y ************************************
**
*ASSEMBLY, NAME=ASSEMBLY1
**
*INSTANCE, NAME=Part-Default_1, PART=Part-Default
*END INSTANCE
**
*END ASSEMBLY
**
**
**
*MATERIAL, NAME = Default-Steel
*ELASTIC, TYPE=ISOTROPIC
2.068000e+05, 2.900000e-01
*DENSITY
7.000000e-06
*CONDUCTIVITY,TYPE=ISO
4.500000e-02
*SPECIFIC HEAT
5.000000e+02
**
**
************************************** H I S T O R Y *************************************
**
*PREPRINT
**
**************************************** S T E P 1 ***************************************
*STEP,INC=100,NAME=Default Set
**
*STATIC
1, 1, 1e-05, 1
**
**
**
**
*END STEP
